#======================================================================

# CRYSTAL DATA

#----------------------------------------------------------------------

data_VESTA_phase_1


_chemical_name_common                  ''
_cell_length_a                         3.85567
_cell_length_b                         3.85567
_cell_length_c                         8.02519
_cell_angle_alpha                      90
_cell_angle_beta                       90
_cell_angle_gamma                      90
_space_group_name_H-M_alt              'P 1'
_space_group_IT_number                 1

loop_
_space_group_symop_operation_xyz
   'x, y, z'

loop_
   _atom_site_label
   _atom_site_occupancy
   _atom_site_fract_x
   _atom_site_fract_y
   _atom_site_fract_z
   _atom_site_adp_type
   _atom_site_B_iso_or_equiv
   _atom_site_type_symbol
   K1         1.0     0.000000      0.500000     -0.166379     Biso  1.000000 K
   K2         1.0     0.500000      0.000000      0.166379     Biso  1.000000 K
   Co1        1.0     0.000000      0.500000      0.411663     Biso  1.000000 Co
   Co2        1.0    -0.500000      0.000000     -0.411663     Biso  1.000000 Co
   O1         1.0     0.000000      0.000000      0.500000     Biso  1.000000 O
   O2         1.0     0.500000      0.500000      0.500000     Biso  1.000000 O
   O3         1.0     0.000000      0.500000      0.193258     Biso  1.000000 O
   O4         1.0     0.500000      0.000000     -0.193258     Biso  1.000000 O
